<?xml version="1.0" encoding="UTF-8"?>

<!-- generated on 2024-12-30 23:19:59 by Eclipse SUMO netedit Version 1.21.0
-->

<routes xmlns:xsi="http://www.w3.org/2001/XMLSchema-instance" xsi:noNamespaceSchemaLocation="http://sumo.dlr.de/xsd/routes_file.xsd">
    <!-- Routes -->
    <route id="r_0" edges="E2 E0 E1"/>
    <route id="r_1" edges="E3 E1"/>
    <!-- Vehicles, persons and containers (sorted by depart) -->
    <vehicle id="v_0" depart="0.00" route="r_0"/>
    <vehicle id="v_1" depart="0.00" route="r_0"/>
    <vehicle id="v_10" depart="0.00" route="r_0"/>
    <vehicle id="v_11" depart="0.00" route="r_0"/>
    <vehicle id="v_12" depart="0.00" route="r_0"/>
    <vehicle id="v_13" depart="0.00" route="r_0"/>
    <vehicle id="v_14" depart="0.00" route="r_0"/>
    <vehicle id="v_15" depart="0.00" route="r_0"/>
    <vehicle id="v_16" depart="0.00" route="r_0"/>
    <vehicle id="v_17" depart="0.00" route="r_0"/>
    <vehicle id="v_18" depart="0.00" route="r_0"/>
    <vehicle id="v_19" depart="0.00" route="r_0"/>
    <vehicle id="v_2" depart="0.00" route="r_0"/>
    <vehicle id="v_20" depart="0.00" route="r_0"/>
    <vehicle id="v_21" depart="0.00" route="r_0"/>
    <vehicle id="v_22" depart="0.00" route="r_0"/>
    <vehicle id="v_23" depart="0.00" route="r_0"/>
    <vehicle id="v_24" depart="0.00" route="r_0"/>
    <vehicle id="v_25" depart="0.00" route="r_0"/>
    <vehicle id="v_26" depart="0.00" route="r_0"/>
    <vehicle id="v_27" depart="0.00" route="r_0"/>
    <vehicle id="v_28" depart="0.00" route="r_0"/>
    <vehicle id="v_29" depart="0.00" route="r_0"/>
    <vehicle id="v_3" depart="0.00" route="r_0"/>
    <vehicle id="v_30" depart="0.00" route="r_0"/>
    <vehicle id="v_31" depart="0.00" route="r_0"/>
    <vehicle id="v_32" depart="0.00" route="r_0"/>
    <vehicle id="v_33" depart="0.00" route="r_0"/>
    <vehicle id="v_34" depart="0.00" route="r_1"/>
    <vehicle id="v_35" depart="0.00" route="r_1"/>
    <vehicle id="v_36" depart="0.00" route="r_1"/>
    <vehicle id="v_37" depart="0.00" route="r_1"/>
    <vehicle id="v_38" depart="0.00" route="r_1"/>
    <vehicle id="v_39" depart="0.00" route="r_1"/>
    <vehicle id="v_4" depart="0.00" route="r_0"/>
    <vehicle id="v_40" depart="0.00" route="r_1"/>
    <vehicle id="v_41" depart="0.00" route="r_1"/>
    <vehicle id="v_42" depart="0.00" route="r_1"/>
    <vehicle id="v_43" depart="0.00" route="r_1"/>
    <vehicle id="v_44" depart="0.00" route="r_1"/>
    <vehicle id="v_45" depart="0.00" route="r_1"/>
    <vehicle id="v_46" depart="0.00" route="r_1"/>
    <vehicle id="v_47" depart="0.00" route="r_1"/>
    <vehicle id="v_48" depart="0.00" route="r_1"/>
    <vehicle id="v_49" depart="0.00" route="r_1"/>
    <vehicle id="v_5" depart="0.00" route="r_0"/>
    <vehicle id="v_50" depart="0.00" route="r_1"/>
    <vehicle id="v_51" depart="0.00" route="r_1"/>
    <vehicle id="v_52" depart="0.00" route="r_1"/>
    <vehicle id="v_53" depart="0.00" route="r_1"/>
    <vehicle id="v_54" depart="0.00" route="r_1"/>
    <vehicle id="v_55" depart="0.00" route="r_1"/>
    <vehicle id="v_56" depart="0.00" route="r_1"/>
    <vehicle id="v_57" depart="0.00" route="r_1"/>
    <vehicle id="v_58" depart="0.00" route="r_1"/>
    <vehicle id="v_6" depart="0.00" route="r_0"/>
    <vehicle id="v_7" depart="0.00" route="r_0"/>
    <vehicle id="v_8" depart="0.00" route="r_0"/>
    <vehicle id="v_9" depart="0.00" route="r_0"/>
</routes>
