<?xml version="1.0" encoding="UTF-8"?>

<!-- generated on 2024-12-30 23:19:59 by Eclipse SUMO sumo Version 1.21.0
-->

<sumoConfiguration xmlns:xsi="http://www.w3.org/2001/XMLSchema-instance" xsi:noNamespaceSchemaLocation="http://sumo.dlr.de/xsd/sumoConfiguration.xsd">

    <input>
        <net-file value="test.net.xml"/>
        <route-files value="routes.rou.xml"/>
        <additional-files value="try_1.add.xml"/>
    </input>

</sumoConfiguration>
